*SPEF "ieee 1481-1999"
*DESIGN "counter16bit"
*DATE "19:33:44 Wednesday June 18, 2025"
*VENDOR "The OpenROAD Project"
*PROGRAM "OpenROAD"
*VERSION "b16bda7e82721d10566ff7e2b68f1ff0be9f9e38"
*DESIGN_FLOW "NAME_SCOPE LOCAL" "PIN_CAP NONE"
*DIVIDER /
*DELIMITER :
*BUS_DELIMITER []
*T_UNIT 1 NS
*C_UNIT 1 PF
*R_UNIT 1 OHM
*L_UNIT 1 HENRY

*NAME_MAP
*3 clk
*4 count[0]
*5 count[10]
*6 count[11]
*7 count[12]
*8 count[13]
*9 count[14]
*10 count[15]
*11 count[1]
*12 count[2]
*13 count[3]
*14 count[4]
*15 count[5]
*16 count[6]
*17 count[7]
*18 count[8]
*19 count[9]
*20 rst
*21 _000_
*22 _001_
*23 _002_
*24 _003_
*25 _004_
*26 _005_
*27 _006_
*28 _007_
*29 _008_
*30 _009_
*31 _010_
*32 _011_
*33 _012_
*34 _013_
*35 _014_
*36 _015_
*37 _016_
*38 _017_
*39 _018_
*40 _019_
*41 _020_
*42 _021_
*43 _022_
*44 _023_
*45 _024_
*46 _025_
*47 _026_
*48 _027_
*49 _028_
*50 _029_
*51 _030_
*52 _031_
*53 _032_
*54 _033_
*55 _034_
*56 _035_
*57 _036_
*58 _037_
*59 _038_
*60 _039_
*61 _040_
*62 _041_
*63 _042_
*64 _043_
*65 _044_
*66 _045_
*67 _046_
*68 _047_
*69 clknet_0_clk
*70 clknet_1_0__leaf_clk
*71 clknet_1_1__leaf_clk
*72 net1
*73 net10
*74 net11
*75 net12
*76 net13
*77 net14
*78 net15
*79 net16
*80 net17
*81 net18
*82 net19
*83 net2
*84 net20
*85 net21
*86 net22
*87 net23
*88 net24
*89 net25
*90 net26
*91 net27
*92 net28
*93 net29
*94 net3
*95 net30
*96 net4
*97 net5
*98 net6
*99 net7
*100 net8
*101 net9
*102 ANTENNA_1
*103 FILLER_0_0_109
*104 FILLER_0_0_113
*105 FILLER_0_0_125
*106 FILLER_0_0_137
*107 FILLER_0_0_141
*108 FILLER_0_0_15
*109 FILLER_0_0_153
*110 FILLER_0_0_165
*111 FILLER_0_0_169
*112 FILLER_0_0_181
*113 FILLER_0_0_193
*114 FILLER_0_0_197
*115 FILLER_0_0_209
*116 FILLER_0_0_221
*117 FILLER_0_0_225
*118 FILLER_0_0_237
*119 FILLER_0_0_249
*120 FILLER_0_0_253
*121 FILLER_0_0_265
*122 FILLER_0_0_27
*123 FILLER_0_0_273
*124 FILLER_0_0_281
*125 FILLER_0_0_287
*126 FILLER_0_0_29
*127 FILLER_0_0_294
*128 FILLER_0_0_3
*129 FILLER_0_0_306
*130 FILLER_0_0_309
*131 FILLER_0_0_315
*132 FILLER_0_0_327
*133 FILLER_0_0_335
*134 FILLER_0_0_337
*135 FILLER_0_0_349
*136 FILLER_0_0_361
*137 FILLER_0_0_365
*138 FILLER_0_0_377
*139 FILLER_0_0_389
*140 FILLER_0_0_393
*141 FILLER_0_0_405
*142 FILLER_0_0_41
*143 FILLER_0_0_417
*144 FILLER_0_0_421
*145 FILLER_0_0_433
*146 FILLER_0_0_445
*147 FILLER_0_0_449
*148 FILLER_0_0_461
*149 FILLER_0_0_473
*150 FILLER_0_0_477
*151 FILLER_0_0_489
*152 FILLER_0_0_501
*153 FILLER_0_0_505
*154 FILLER_0_0_517
*155 FILLER_0_0_529
*156 FILLER_0_0_53
*157 FILLER_0_0_533
*158 FILLER_0_0_545
*159 FILLER_0_0_557
*160 FILLER_0_0_561
*161 FILLER_0_0_57
*162 FILLER_0_0_573
*163 FILLER_0_0_581
*164 FILLER_0_0_69
*165 FILLER_0_0_81
*166 FILLER_0_0_85
*167 FILLER_0_0_97
*168 FILLER_0_10_109
*169 FILLER_0_10_121
*170 FILLER_0_10_133
*171 FILLER_0_10_139
*172 FILLER_0_10_141
*173 FILLER_0_10_15
*174 FILLER_0_10_153
*175 FILLER_0_10_165
*176 FILLER_0_10_177
*177 FILLER_0_10_189
*178 FILLER_0_10_195
*179 FILLER_0_10_197
*180 FILLER_0_10_209
*181 FILLER_0_10_221
*182 FILLER_0_10_233
*183 FILLER_0_10_245
*184 FILLER_0_10_251
*185 FILLER_0_10_253
*186 FILLER_0_10_265
*187 FILLER_0_10_27
*188 FILLER_0_10_277
*189 FILLER_0_10_289
*190 FILLER_0_10_29
*191 FILLER_0_10_3
*192 FILLER_0_10_301
*193 FILLER_0_10_307
*194 FILLER_0_10_309
*195 FILLER_0_10_321
*196 FILLER_0_10_333
*197 FILLER_0_10_345
*198 FILLER_0_10_357
*199 FILLER_0_10_363
*200 FILLER_0_10_365
*201 FILLER_0_10_377
*202 FILLER_0_10_389
*203 FILLER_0_10_401
*204 FILLER_0_10_41
*205 FILLER_0_10_413
*206 FILLER_0_10_419
*207 FILLER_0_10_421
*208 FILLER_0_10_433
*209 FILLER_0_10_445
*210 FILLER_0_10_457
*211 FILLER_0_10_469
*212 FILLER_0_10_475
*213 FILLER_0_10_477
*214 FILLER_0_10_489
*215 FILLER_0_10_501
*216 FILLER_0_10_513
*217 FILLER_0_10_525
*218 FILLER_0_10_53
*219 FILLER_0_10_531
*220 FILLER_0_10_533
*221 FILLER_0_10_545
*222 FILLER_0_10_557
*223 FILLER_0_10_569
*224 FILLER_0_10_581
*225 FILLER_0_10_65
*226 FILLER_0_10_77
*227 FILLER_0_10_83
*228 FILLER_0_10_85
*229 FILLER_0_10_97
*230 FILLER_0_11_105
*231 FILLER_0_11_111
*232 FILLER_0_11_113
*233 FILLER_0_11_125
*234 FILLER_0_11_137
*235 FILLER_0_11_149
*236 FILLER_0_11_15
*237 FILLER_0_11_161
*238 FILLER_0_11_167
*239 FILLER_0_11_169
*240 FILLER_0_11_181
*241 FILLER_0_11_193
*242 FILLER_0_11_205
*243 FILLER_0_11_217
*244 FILLER_0_11_223
*245 FILLER_0_11_225
*246 FILLER_0_11_237
*247 FILLER_0_11_249
*248 FILLER_0_11_261
*249 FILLER_0_11_27
*250 FILLER_0_11_273
*251 FILLER_0_11_279
*252 FILLER_0_11_281
*253 FILLER_0_11_293
*254 FILLER_0_11_3
*255 FILLER_0_11_305
*256 FILLER_0_11_317
*257 FILLER_0_11_329
*258 FILLER_0_11_335
*259 FILLER_0_11_337
*260 FILLER_0_11_349
*261 FILLER_0_11_361
*262 FILLER_0_11_373
*263 FILLER_0_11_385
*264 FILLER_0_11_39
*265 FILLER_0_11_391
*266 FILLER_0_11_393
*267 FILLER_0_11_405
*268 FILLER_0_11_417
*269 FILLER_0_11_429
*270 FILLER_0_11_441
*271 FILLER_0_11_447
*272 FILLER_0_11_449
*273 FILLER_0_11_461
*274 FILLER_0_11_473
*275 FILLER_0_11_485
*276 FILLER_0_11_497
*277 FILLER_0_11_503
*278 FILLER_0_11_505
*279 FILLER_0_11_51
*280 FILLER_0_11_517
*281 FILLER_0_11_529
*282 FILLER_0_11_541
*283 FILLER_0_11_55
*284 FILLER_0_11_553
*285 FILLER_0_11_559
*286 FILLER_0_11_561
*287 FILLER_0_11_57
*288 FILLER_0_11_573
*289 FILLER_0_11_581
*290 FILLER_0_11_69
*291 FILLER_0_11_81
*292 FILLER_0_11_93
*293 FILLER_0_12_109
*294 FILLER_0_12_121
*295 FILLER_0_12_133
*296 FILLER_0_12_139
*297 FILLER_0_12_141
*298 FILLER_0_12_15
*299 FILLER_0_12_153
*300 FILLER_0_12_165
*301 FILLER_0_12_177
*302 FILLER_0_12_189
*303 FILLER_0_12_195
*304 FILLER_0_12_197
*305 FILLER_0_12_209
*306 FILLER_0_12_221
*307 FILLER_0_12_233
*308 FILLER_0_12_245
*309 FILLER_0_12_251
*310 FILLER_0_12_253
*311 FILLER_0_12_265
*312 FILLER_0_12_27
*313 FILLER_0_12_277
*314 FILLER_0_12_289
*315 FILLER_0_12_29
*316 FILLER_0_12_3
*317 FILLER_0_12_301
*318 FILLER_0_12_307
*319 FILLER_0_12_309
*320 FILLER_0_12_321
*321 FILLER_0_12_333
*322 FILLER_0_12_345
*323 FILLER_0_12_357
*324 FILLER_0_12_363
*325 FILLER_0_12_365
*326 FILLER_0_12_377
*327 FILLER_0_12_389
*328 FILLER_0_12_401
*329 FILLER_0_12_41
*330 FILLER_0_12_413
*331 FILLER_0_12_419
*332 FILLER_0_12_421
*333 FILLER_0_12_433
*334 FILLER_0_12_445
*335 FILLER_0_12_457
*336 FILLER_0_12_469
*337 FILLER_0_12_475
*338 FILLER_0_12_477
*339 FILLER_0_12_489
*340 FILLER_0_12_501
*341 FILLER_0_12_513
*342 FILLER_0_12_525
*343 FILLER_0_12_53
*344 FILLER_0_12_531
*345 FILLER_0_12_533
*346 FILLER_0_12_545
*347 FILLER_0_12_557
*348 FILLER_0_12_569
*349 FILLER_0_12_581
*350 FILLER_0_12_65
*351 FILLER_0_12_77
*352 FILLER_0_12_83
*353 FILLER_0_12_85
*354 FILLER_0_12_97
*355 FILLER_0_13_105
*356 FILLER_0_13_111
*357 FILLER_0_13_113
*358 FILLER_0_13_125
*359 FILLER_0_13_137
*360 FILLER_0_13_149
*361 FILLER_0_13_15
*362 FILLER_0_13_161
*363 FILLER_0_13_167
*364 FILLER_0_13_169
*365 FILLER_0_13_181
*366 FILLER_0_13_193
*367 FILLER_0_13_205
*368 FILLER_0_13_217
*369 FILLER_0_13_223
*370 FILLER_0_13_225
*371 FILLER_0_13_237
*372 FILLER_0_13_249
*373 FILLER_0_13_261
*374 FILLER_0_13_27
*375 FILLER_0_13_273
*376 FILLER_0_13_279
*377 FILLER_0_13_281
*378 FILLER_0_13_293
*379 FILLER_0_13_3
*380 FILLER_0_13_305
*381 FILLER_0_13_317
*382 FILLER_0_13_329
*383 FILLER_0_13_335
*384 FILLER_0_13_337
*385 FILLER_0_13_349
*386 FILLER_0_13_361
*387 FILLER_0_13_373
*388 FILLER_0_13_385
*389 FILLER_0_13_39
*390 FILLER_0_13_391
*391 FILLER_0_13_393
*392 FILLER_0_13_405
*393 FILLER_0_13_417
*394 FILLER_0_13_429
*395 FILLER_0_13_441
*396 FILLER_0_13_447
*397 FILLER_0_13_449
*398 FILLER_0_13_461
*399 FILLER_0_13_473
*400 FILLER_0_13_485
*401 FILLER_0_13_497
*402 FILLER_0_13_503
*403 FILLER_0_13_505
*404 FILLER_0_13_51
*405 FILLER_0_13_517
*406 FILLER_0_13_529
*407 FILLER_0_13_541
*408 FILLER_0_13_55
*409 FILLER_0_13_553
*410 FILLER_0_13_559
*411 FILLER_0_13_561
*412 FILLER_0_13_57
*413 FILLER_0_13_573
*414 FILLER_0_13_581
*415 FILLER_0_13_69
*416 FILLER_0_13_81
*417 FILLER_0_13_93
*418 FILLER_0_14_109
*419 FILLER_0_14_121
*420 FILLER_0_14_133
*421 FILLER_0_14_139
*422 FILLER_0_14_141
*423 FILLER_0_14_15
*424 FILLER_0_14_153
*425 FILLER_0_14_165
*426 FILLER_0_14_177
*427 FILLER_0_14_189
*428 FILLER_0_14_195
*429 FILLER_0_14_197
*430 FILLER_0_14_209
*431 FILLER_0_14_221
*432 FILLER_0_14_233
*433 FILLER_0_14_245
*434 FILLER_0_14_251
*435 FILLER_0_14_253
*436 FILLER_0_14_265
*437 FILLER_0_14_27
*438 FILLER_0_14_277
*439 FILLER_0_14_289
*440 FILLER_0_14_29
*441 FILLER_0_14_3
*442 FILLER_0_14_301
*443 FILLER_0_14_307
*444 FILLER_0_14_309
*445 FILLER_0_14_321
*446 FILLER_0_14_333
*447 FILLER_0_14_345
*448 FILLER_0_14_357
*449 FILLER_0_14_363
*450 FILLER_0_14_365
*451 FILLER_0_14_377
*452 FILLER_0_14_389
*453 FILLER_0_14_401
*454 FILLER_0_14_41
*455 FILLER_0_14_413
*456 FILLER_0_14_419
*457 FILLER_0_14_421
*458 FILLER_0_14_433
*459 FILLER_0_14_445
*460 FILLER_0_14_457
*461 FILLER_0_14_469
*462 FILLER_0_14_475
*463 FILLER_0_14_477
*464 FILLER_0_14_489
*465 FILLER_0_14_501
*466 FILLER_0_14_513
*467 FILLER_0_14_525
*468 FILLER_0_14_53
*469 FILLER_0_14_531
*470 FILLER_0_14_533
*471 FILLER_0_14_545
*472 FILLER_0_14_557
*473 FILLER_0_14_569
*474 FILLER_0_14_581
*475 FILLER_0_14_65
*476 FILLER_0_14_77
*477 FILLER_0_14_83
*478 FILLER_0_14_85
*479 FILLER_0_14_97
*480 FILLER_0_15_105
*481 FILLER_0_15_111
*482 FILLER_0_15_113
*483 FILLER_0_15_125
*484 FILLER_0_15_137
*485 FILLER_0_15_149
*486 FILLER_0_15_15
*487 FILLER_0_15_161
*488 FILLER_0_15_167
*489 FILLER_0_15_169
*490 FILLER_0_15_181
*491 FILLER_0_15_193
*492 FILLER_0_15_205
*493 FILLER_0_15_217
*494 FILLER_0_15_223
*495 FILLER_0_15_225
*496 FILLER_0_15_237
*497 FILLER_0_15_249
*498 FILLER_0_15_261
*499 FILLER_0_15_27
*500 FILLER_0_15_273
*501 FILLER_0_15_279
*502 FILLER_0_15_281
*503 FILLER_0_15_293
*504 FILLER_0_15_3
*505 FILLER_0_15_305
*506 FILLER_0_15_317
*507 FILLER_0_15_329
*508 FILLER_0_15_335
*509 FILLER_0_15_337
*510 FILLER_0_15_349
*511 FILLER_0_15_361
*512 FILLER_0_15_373
*513 FILLER_0_15_385
*514 FILLER_0_15_39
*515 FILLER_0_15_391
*516 FILLER_0_15_393
*517 FILLER_0_15_405
*518 FILLER_0_15_417
*519 FILLER_0_15_429
*520 FILLER_0_15_441
*521 FILLER_0_15_447
*522 FILLER_0_15_449
*523 FILLER_0_15_461
*524 FILLER_0_15_473
*525 FILLER_0_15_485
*526 FILLER_0_15_497
*527 FILLER_0_15_503
*528 FILLER_0_15_505
*529 FILLER_0_15_51
*530 FILLER_0_15_517
*531 FILLER_0_15_529
*532 FILLER_0_15_541
*533 FILLER_0_15_55
*534 FILLER_0_15_553
*535 FILLER_0_15_559
*536 FILLER_0_15_561
*537 FILLER_0_15_57
*538 FILLER_0_15_573
*539 FILLER_0_15_581
*540 FILLER_0_15_69
*541 FILLER_0_15_81
*542 FILLER_0_15_93
*543 FILLER_0_16_109
*544 FILLER_0_16_121
*545 FILLER_0_16_133
*546 FILLER_0_16_139
*547 FILLER_0_16_141
*548 FILLER_0_16_15
*549 FILLER_0_16_153
*550 FILLER_0_16_165
*551 FILLER_0_16_177
*552 FILLER_0_16_189
*553 FILLER_0_16_195
*554 FILLER_0_16_197
*555 FILLER_0_16_209
*556 FILLER_0_16_221
*557 FILLER_0_16_233
*558 FILLER_0_16_245
*559 FILLER_0_16_251
*560 FILLER_0_16_253
*561 FILLER_0_16_265
*562 FILLER_0_16_27
*563 FILLER_0_16_277
*564 FILLER_0_16_289
*565 FILLER_0_16_29
*566 FILLER_0_16_3
*567 FILLER_0_16_301
*568 FILLER_0_16_307
*569 FILLER_0_16_309
*570 FILLER_0_16_321
*571 FILLER_0_16_333
*572 FILLER_0_16_345
*573 FILLER_0_16_357
*574 FILLER_0_16_363
*575 FILLER_0_16_365
*576 FILLER_0_16_377
*577 FILLER_0_16_389
*578 FILLER_0_16_401
*579 FILLER_0_16_41
*580 FILLER_0_16_413
*581 FILLER_0_16_419
*582 FILLER_0_16_421
*583 FILLER_0_16_433
*584 FILLER_0_16_445
*585 FILLER_0_16_457
*586 FILLER_0_16_469
*587 FILLER_0_16_475
*588 FILLER_0_16_477
*589 FILLER_0_16_489
*590 FILLER_0_16_501
*591 FILLER_0_16_513
*592 FILLER_0_16_525
*593 FILLER_0_16_53
*594 FILLER_0_16_531
*595 FILLER_0_16_533
*596 FILLER_0_16_545
*597 FILLER_0_16_557
*598 FILLER_0_16_569
*599 FILLER_0_16_581
*600 FILLER_0_16_65
*601 FILLER_0_16_77
*602 FILLER_0_16_83
*603 FILLER_0_16_85
*604 FILLER_0_16_97
*605 FILLER_0_17_105
*606 FILLER_0_17_111
*607 FILLER_0_17_113
*608 FILLER_0_17_125
*609 FILLER_0_17_137
*610 FILLER_0_17_149
*611 FILLER_0_17_15
*612 FILLER_0_17_161
*613 FILLER_0_17_167
*614 FILLER_0_17_169
*615 FILLER_0_17_181
*616 FILLER_0_17_193
*617 FILLER_0_17_205
*618 FILLER_0_17_217
*619 FILLER_0_17_223
*620 FILLER_0_17_225
*621 FILLER_0_17_237
*622 FILLER_0_17_249
*623 FILLER_0_17_261
*624 FILLER_0_17_27
*625 FILLER_0_17_273
*626 FILLER_0_17_279
*627 FILLER_0_17_281
*628 FILLER_0_17_293
*629 FILLER_0_17_3
*630 FILLER_0_17_305
*631 FILLER_0_17_317
*632 FILLER_0_17_329
*633 FILLER_0_17_335
*634 FILLER_0_17_337
*635 FILLER_0_17_349
*636 FILLER_0_17_361
*637 FILLER_0_17_373
*638 FILLER_0_17_385
*639 FILLER_0_17_39
*640 FILLER_0_17_391
*641 FILLER_0_17_393
*642 FILLER_0_17_405
*643 FILLER_0_17_417
*644 FILLER_0_17_429
*645 FILLER_0_17_441
*646 FILLER_0_17_447
*647 FILLER_0_17_449
*648 FILLER_0_17_461
*649 FILLER_0_17_473
*650 FILLER_0_17_485
*651 FILLER_0_17_497
*652 FILLER_0_17_503
*653 FILLER_0_17_505
*654 FILLER_0_17_51
*655 FILLER_0_17_517
*656 FILLER_0_17_529
*657 FILLER_0_17_541
*658 FILLER_0_17_55
*659 FILLER_0_17_553
*660 FILLER_0_17_559
*661 FILLER_0_17_561
*662 FILLER_0_17_57
*663 FILLER_0_17_573
*664 FILLER_0_17_581
*665 FILLER_0_17_69
*666 FILLER_0_17_81
*667 FILLER_0_17_93
*668 FILLER_0_18_109
*669 FILLER_0_18_121
*670 FILLER_0_18_133
*671 FILLER_0_18_139
*672 FILLER_0_18_141
*673 FILLER_0_18_15
*674 FILLER_0_18_153
*675 FILLER_0_18_165
*676 FILLER_0_18_177
*677 FILLER_0_18_189
*678 FILLER_0_18_195
*679 FILLER_0_18_197
*680 FILLER_0_18_209
*681 FILLER_0_18_221
*682 FILLER_0_18_233
*683 FILLER_0_18_245
*684 FILLER_0_18_251
*685 FILLER_0_18_253
*686 FILLER_0_18_265
*687 FILLER_0_18_27
*688 FILLER_0_18_277
*689 FILLER_0_18_289
*690 FILLER_0_18_29
*691 FILLER_0_18_3
*692 FILLER_0_18_301
*693 FILLER_0_18_307
*694 FILLER_0_18_309
*695 FILLER_0_18_321
*696 FILLER_0_18_333
*697 FILLER_0_18_345
*698 FILLER_0_18_357
*699 FILLER_0_18_363
*700 FILLER_0_18_365
*701 FILLER_0_18_377
*702 FILLER_0_18_389
*703 FILLER_0_18_401
*704 FILLER_0_18_41
*705 FILLER_0_18_413
*706 FILLER_0_18_419
*707 FILLER_0_18_421
*708 FILLER_0_18_433
*709 FILLER_0_18_445
*710 FILLER_0_18_457
*711 FILLER_0_18_469
*712 FILLER_0_18_475
*713 FILLER_0_18_477
*714 FILLER_0_18_489
*715 FILLER_0_18_501
*716 FILLER_0_18_513
*717 FILLER_0_18_525
*718 FILLER_0_18_53
*719 FILLER_0_18_531
*720 FILLER_0_18_533
*721 FILLER_0_18_545
*722 FILLER_0_18_557
*723 FILLER_0_18_569
*724 FILLER_0_18_581
*725 FILLER_0_18_65
*726 FILLER_0_18_77
*727 FILLER_0_18_83
*728 FILLER_0_18_85
*729 FILLER_0_18_97
*730 FILLER_0_19_105
*731 FILLER_0_19_111
*732 FILLER_0_19_113
*733 FILLER_0_19_125
*734 FILLER_0_19_137
*735 FILLER_0_19_149
*736 FILLER_0_19_15
*737 FILLER_0_19_161
*738 FILLER_0_19_167
*739 FILLER_0_19_169
*740 FILLER_0_19_181
*741 FILLER_0_19_193
*742 FILLER_0_19_205
*743 FILLER_0_19_217
*744 FILLER_0_19_223
*745 FILLER_0_19_225
*746 FILLER_0_19_237
*747 FILLER_0_19_249
*748 FILLER_0_19_261
*749 FILLER_0_19_27
*750 FILLER_0_19_273
*751 FILLER_0_19_279
*752 FILLER_0_19_281
*753 FILLER_0_19_293
*754 FILLER_0_19_3
*755 FILLER_0_19_305
*756 FILLER_0_19_317
*757 FILLER_0_19_329
*758 FILLER_0_19_335
*759 FILLER_0_19_337
*760 FILLER_0_19_349
*761 FILLER_0_19_361
*762 FILLER_0_19_373
*763 FILLER_0_19_385
*764 FILLER_0_19_39
*765 FILLER_0_19_391
*766 FILLER_0_19_393
*767 FILLER_0_19_405
*768 FILLER_0_19_417
*769 FILLER_0_19_429
*770 FILLER_0_19_441
*771 FILLER_0_19_447
*772 FILLER_0_19_449
*773 FILLER_0_19_461
*774 FILLER_0_19_473
*775 FILLER_0_19_485
*776 FILLER_0_19_497
*777 FILLER_0_19_503
*778 FILLER_0_19_505
*779 FILLER_0_19_51
*780 FILLER_0_19_517
*781 FILLER_0_19_529
*782 FILLER_0_19_541
*783 FILLER_0_19_55
*784 FILLER_0_19_553
*785 FILLER_0_19_559
*786 FILLER_0_19_561
*787 FILLER_0_19_57
*788 FILLER_0_19_573
*789 FILLER_0_19_581
*790 FILLER_0_19_69
*791 FILLER_0_19_81
*792 FILLER_0_19_93
*793 FILLER_0_1_105
*794 FILLER_0_1_111
*795 FILLER_0_1_113
*796 FILLER_0_1_125
*797 FILLER_0_1_137
*798 FILLER_0_1_149
*799 FILLER_0_1_15
*800 FILLER_0_1_161
*801 FILLER_0_1_167
*802 FILLER_0_1_169
*803 FILLER_0_1_181
*804 FILLER_0_1_193
*805 FILLER_0_1_205
*806 FILLER_0_1_217
*807 FILLER_0_1_223
*808 FILLER_0_1_225
*809 FILLER_0_1_237
*810 FILLER_0_1_249
*811 FILLER_0_1_261
*812 FILLER_0_1_27
*813 FILLER_0_1_273
*814 FILLER_0_1_279
*815 FILLER_0_1_281
*816 FILLER_0_1_293
*817 FILLER_0_1_3
*818 FILLER_0_1_305
*819 FILLER_0_1_317
*820 FILLER_0_1_329
*821 FILLER_0_1_335
*822 FILLER_0_1_337
*823 FILLER_0_1_349
*824 FILLER_0_1_361
*825 FILLER_0_1_373
*826 FILLER_0_1_385
*827 FILLER_0_1_39
*828 FILLER_0_1_391
*829 FILLER_0_1_393
*830 FILLER_0_1_405
*831 FILLER_0_1_417
*832 FILLER_0_1_429
*833 FILLER_0_1_441
*834 FILLER_0_1_447
*835 FILLER_0_1_449
*836 FILLER_0_1_461
*837 FILLER_0_1_473
*838 FILLER_0_1_485
*839 FILLER_0_1_497
*840 FILLER_0_1_503
*841 FILLER_0_1_505
*842 FILLER_0_1_51
*843 FILLER_0_1_517
*844 FILLER_0_1_529
*845 FILLER_0_1_541
*846 FILLER_0_1_55
*847 FILLER_0_1_553
*848 FILLER_0_1_559
*849 FILLER_0_1_561
*850 FILLER_0_1_57
*851 FILLER_0_1_573
*852 FILLER_0_1_581
*853 FILLER_0_1_69
*854 FILLER_0_1_81
*855 FILLER_0_1_93
*856 FILLER_0_20_109
*857 FILLER_0_20_121
*858 FILLER_0_20_133
*859 FILLER_0_20_139
*860 FILLER_0_20_141
*861 FILLER_0_20_15
*862 FILLER_0_20_153
*863 FILLER_0_20_165
*864 FILLER_0_20_177
*865 FILLER_0_20_189
*866 FILLER_0_20_195
*867 FILLER_0_20_197
*868 FILLER_0_20_209
*869 FILLER_0_20_221
*870 FILLER_0_20_233
*871 FILLER_0_20_245
*872 FILLER_0_20_251
*873 FILLER_0_20_253
*874 FILLER_0_20_265
*875 FILLER_0_20_27
*876 FILLER_0_20_277
*877 FILLER_0_20_289
*878 FILLER_0_20_29
*879 FILLER_0_20_3
*880 FILLER_0_20_301
*881 FILLER_0_20_307
*882 FILLER_0_20_309
*883 FILLER_0_20_321
*884 FILLER_0_20_333
*885 FILLER_0_20_345
*886 FILLER_0_20_357
*887 FILLER_0_20_363
*888 FILLER_0_20_365
*889 FILLER_0_20_377
*890 FILLER_0_20_389
*891 FILLER_0_20_401
*892 FILLER_0_20_41
*893 FILLER_0_20_413
*894 FILLER_0_20_419
*895 FILLER_0_20_421
*896 FILLER_0_20_433
*897 FILLER_0_20_445
*898 FILLER_0_20_457
*899 FILLER_0_20_469
*900 FILLER_0_20_475
*901 FILLER_0_20_477
*902 FILLER_0_20_489
*903 FILLER_0_20_501
*904 FILLER_0_20_513
*905 FILLER_0_20_525
*906 FILLER_0_20_53
*907 FILLER_0_20_531
*908 FILLER_0_20_533
*909 FILLER_0_20_545
*910 FILLER_0_20_557
*911 FILLER_0_20_569
*912 FILLER_0_20_581
*913 FILLER_0_20_65
*914 FILLER_0_20_77
*915 FILLER_0_20_83
*916 FILLER_0_20_85
*917 FILLER_0_20_97
*918 FILLER_0_21_105
*919 FILLER_0_21_111
*920 FILLER_0_21_113
*921 FILLER_0_21_125
*922 FILLER_0_21_137
*923 FILLER_0_21_149
*924 FILLER_0_21_15
*925 FILLER_0_21_161
*926 FILLER_0_21_167
*927 FILLER_0_21_169
*928 FILLER_0_21_181
*929 FILLER_0_21_193
*930 FILLER_0_21_205
*931 FILLER_0_21_217
*932 FILLER_0_21_223
*933 FILLER_0_21_225
*934 FILLER_0_21_237
*935 FILLER_0_21_249
*936 FILLER_0_21_261
*937 FILLER_0_21_27
*938 FILLER_0_21_273
*939 FILLER_0_21_279
*940 FILLER_0_21_281
*941 FILLER_0_21_293
*942 FILLER_0_21_3
*943 FILLER_0_21_305
*944 FILLER_0_21_317
*945 FILLER_0_21_329
*946 FILLER_0_21_335
*947 FILLER_0_21_337
*948 FILLER_0_21_349
*949 FILLER_0_21_361
*950 FILLER_0_21_373
*951 FILLER_0_21_385
*952 FILLER_0_21_39
*953 FILLER_0_21_391
*954 FILLER_0_21_393
*955 FILLER_0_21_405
*956 FILLER_0_21_417
*957 FILLER_0_21_429
*958 FILLER_0_21_441
*959 FILLER_0_21_447
*960 FILLER_0_21_449
*961 FILLER_0_21_461
*962 FILLER_0_21_473
*963 FILLER_0_21_485
*964 FILLER_0_21_497
*965 FILLER_0_21_503
*966 FILLER_0_21_505
*967 FILLER_0_21_51
*968 FILLER_0_21_517
*969 FILLER_0_21_529
*970 FILLER_0_21_541
*971 FILLER_0_21_55
*972 FILLER_0_21_553
*973 FILLER_0_21_559
*974 FILLER_0_21_561
*975 FILLER_0_21_57
*976 FILLER_0_21_573
*977 FILLER_0_21_581
*978 FILLER_0_21_69
*979 FILLER_0_21_81
*980 FILLER_0_21_93
*981 FILLER_0_22_109
*982 FILLER_0_22_121
*983 FILLER_0_22_133
*984 FILLER_0_22_139
*985 FILLER_0_22_141
*986 FILLER_0_22_15
*987 FILLER_0_22_153
*988 FILLER_0_22_165
*989 FILLER_0_22_177
*990 FILLER_0_22_189
*991 FILLER_0_22_195
*992 FILLER_0_22_197
*993 FILLER_0_22_209
*994 FILLER_0_22_221
*995 FILLER_0_22_233
*996 FILLER_0_22_245
*997 FILLER_0_22_251
*998 FILLER_0_22_253
*999 FILLER_0_22_265
*1000 FILLER_0_22_27
*1001 FILLER_0_22_277
*1002 FILLER_0_22_289
*1003 FILLER_0_22_29
*1004 FILLER_0_22_3
*1005 FILLER_0_22_301
*1006 FILLER_0_22_307
*1007 FILLER_0_22_309
*1008 FILLER_0_22_321
*1009 FILLER_0_22_333
*1010 FILLER_0_22_345
*1011 FILLER_0_22_357
*1012 FILLER_0_22_363
*1013 FILLER_0_22_365
*1014 FILLER_0_22_377
*1015 FILLER_0_22_389
*1016 FILLER_0_22_401
*1017 FILLER_0_22_41
*1018 FILLER_0_22_413
*1019 FILLER_0_22_419
*1020 FILLER_0_22_421
*1021 FILLER_0_22_433
*1022 FILLER_0_22_445
*1023 FILLER_0_22_457
*1024 FILLER_0_22_469
*1025 FILLER_0_22_475
*1026 FILLER_0_22_477
*1027 FILLER_0_22_489
*1028 FILLER_0_22_501
*1029 FILLER_0_22_513
*1030 FILLER_0_22_525
*1031 FILLER_0_22_53
*1032 FILLER_0_22_531
*1033 FILLER_0_22_533
*1034 FILLER_0_22_545
*1035 FILLER_0_22_557
*1036 FILLER_0_22_569
*1037 FILLER_0_22_581
*1038 FILLER_0_22_65
*1039 FILLER_0_22_77
*1040 FILLER_0_22_83
*1041 FILLER_0_22_85
*1042 FILLER_0_22_97
*1043 FILLER_0_23_105
*1044 FILLER_0_23_111
*1045 FILLER_0_23_113
*1046 FILLER_0_23_125
*1047 FILLER_0_23_137
*1048 FILLER_0_23_149
*1049 FILLER_0_23_15
*1050 FILLER_0_23_161
*1051 FILLER_0_23_167
*1052 FILLER_0_23_169
*1053 FILLER_0_23_181
*1054 FILLER_0_23_193
*1055 FILLER_0_23_205
*1056 FILLER_0_23_217
*1057 FILLER_0_23_223
*1058 FILLER_0_23_225
*1059 FILLER_0_23_237
*1060 FILLER_0_23_249
*1061 FILLER_0_23_261
*1062 FILLER_0_23_27
*1063 FILLER_0_23_273
*1064 FILLER_0_23_279
*1065 FILLER_0_23_281
*1066 FILLER_0_23_293
*1067 FILLER_0_23_3
*1068 FILLER_0_23_305
*1069 FILLER_0_23_317
*1070 FILLER_0_23_329
*1071 FILLER_0_23_335
*1072 FILLER_0_23_337
*1073 FILLER_0_23_349
*1074 FILLER_0_23_361
*1075 FILLER_0_23_373
*1076 FILLER_0_23_385
*1077 FILLER_0_23_39
*1078 FILLER_0_23_391
*1079 FILLER_0_23_393
*1080 FILLER_0_23_405
*1081 FILLER_0_23_417
*1082 FILLER_0_23_429
*1083 FILLER_0_23_441
*1084 FILLER_0_23_447
*1085 FILLER_0_23_449
*1086 FILLER_0_23_461
*1087 FILLER_0_23_473
*1088 FILLER_0_23_485
*1089 FILLER_0_23_497
*1090 FILLER_0_23_503
*1091 FILLER_0_23_505
*1092 FILLER_0_23_51
*1093 FILLER_0_23_517
*1094 FILLER_0_23_529
*1095 FILLER_0_23_541
*1096 FILLER_0_23_55
*1097 FILLER_0_23_553
*1098 FILLER_0_23_559
*1099 FILLER_0_23_561
*1100 FILLER_0_23_57
*1101 FILLER_0_23_573
*1102 FILLER_0_23_581
*1103 FILLER_0_23_69
*1104 FILLER_0_23_81
*1105 FILLER_0_23_93
*1106 FILLER_0_24_109
*1107 FILLER_0_24_121
*1108 FILLER_0_24_133
*1109 FILLER_0_24_139
*1110 FILLER_0_24_141
*1111 FILLER_0_24_15
*1112 FILLER_0_24_153
*1113 FILLER_0_24_165
*1114 FILLER_0_24_177
*1115 FILLER_0_24_189
*1116 FILLER_0_24_195
*1117 FILLER_0_24_197
*1118 FILLER_0_24_209
*1119 FILLER_0_24_221
*1120 FILLER_0_24_233
*1121 FILLER_0_24_245
*1122 FILLER_0_24_251
*1123 FILLER_0_24_253
*1124 FILLER_0_24_265
*1125 FILLER_0_24_27
*1126 FILLER_0_24_277
*1127 FILLER_0_24_289
*1128 FILLER_0_24_29
*1129 FILLER_0_24_3
*1130 FILLER_0_24_301
*1131 FILLER_0_24_307
*1132 FILLER_0_24_309
*1133 FILLER_0_24_321
*1134 FILLER_0_24_333
*1135 FILLER_0_24_345
*1136 FILLER_0_24_357
*1137 FILLER_0_24_363
*1138 FILLER_0_24_365
*1139 FILLER_0_24_377
*1140 FILLER_0_24_389
*1141 FILLER_0_24_401
*1142 FILLER_0_24_41
*1143 FILLER_0_24_413
*1144 FILLER_0_24_419
*1145 FILLER_0_24_421
*1146 FILLER_0_24_433
*1147 FILLER_0_24_445
*1148 FILLER_0_24_457
*1149 FILLER_0_24_469
*1150 FILLER_0_24_475
*1151 FILLER_0_24_477
*1152 FILLER_0_24_489
*1153 FILLER_0_24_501
*1154 FILLER_0_24_513
*1155 FILLER_0_24_525
*1156 FILLER_0_24_53
*1157 FILLER_0_24_531
*1158 FILLER_0_24_533
*1159 FILLER_0_24_545
*1160 FILLER_0_24_557
*1161 FILLER_0_24_569
*1162 FILLER_0_24_581
*1163 FILLER_0_24_65
*1164 FILLER_0_24_77
*1165 FILLER_0_24_83
*1166 FILLER_0_24_85
*1167 FILLER_0_24_97
*1168 FILLER_0_25_105
*1169 FILLER_0_25_111
*1170 FILLER_0_25_113
*1171 FILLER_0_25_125
*1172 FILLER_0_25_137
*1173 FILLER_0_25_149
*1174 FILLER_0_25_15
*1175 FILLER_0_25_161
*1176 FILLER_0_25_167
*1177 FILLER_0_25_169
*1178 FILLER_0_25_181
*1179 FILLER_0_25_193
*1180 FILLER_0_25_205
*1181 FILLER_0_25_217
*1182 FILLER_0_25_223
*1183 FILLER_0_25_225
*1184 FILLER_0_25_237
*1185 FILLER_0_25_249
*1186 FILLER_0_25_261
*1187 FILLER_0_25_27
*1188 FILLER_0_25_273
*1189 FILLER_0_25_279
*1190 FILLER_0_25_281
*1191 FILLER_0_25_293
*1192 FILLER_0_25_3
*1193 FILLER_0_25_305
*1194 FILLER_0_25_317
*1195 FILLER_0_25_329
*1196 FILLER_0_25_335
*1197 FILLER_0_25_337
*1198 FILLER_0_25_349
*1199 FILLER_0_25_361
*1200 FILLER_0_25_373
*1201 FILLER_0_25_385
*1202 FILLER_0_25_39
*1203 FILLER_0_25_391
*1204 FILLER_0_25_393
*1205 FILLER_0_25_405
*1206 FILLER_0_25_417
*1207 FILLER_0_25_429
*1208 FILLER_0_25_441
*1209 FILLER_0_25_447
*1210 FILLER_0_25_449
*1211 FILLER_0_25_461
*1212 FILLER_0_25_473
*1213 FILLER_0_25_485
*1214 FILLER_0_25_497
*1215 FILLER_0_25_503
*1216 FILLER_0_25_505
*1217 FILLER_0_25_51
*1218 FILLER_0_25_517
*1219 FILLER_0_25_529
*1220 FILLER_0_25_541
*1221 FILLER_0_25_55
*1222 FILLER_0_25_553
*1223 FILLER_0_25_559
*1224 FILLER_0_25_561
*1225 FILLER_0_25_57
*1226 FILLER_0_25_573
*1227 FILLER_0_25_581
*1228 FILLER_0_25_69
*1229 FILLER_0_25_81
*1230 FILLER_0_25_93
*1231 FILLER_0_26_109
*1232 FILLER_0_26_121
*1233 FILLER_0_26_133
*1234 FILLER_0_26_139
*1235 FILLER_0_26_141
*1236 FILLER_0_26_15
*1237 FILLER_0_26_153
*1238 FILLER_0_26_165
*1239 FILLER_0_26_177
*1240 FILLER_0_26_189
*1241 FILLER_0_26_195
*1242 FILLER_0_26_197
*1243 FILLER_0_26_209
*1244 FILLER_0_26_221
*1245 FILLER_0_26_233
*1246 FILLER_0_26_245
*1247 FILLER_0_26_251
*1248 FILLER_0_26_253
*1249 FILLER_0_26_265
*1250 FILLER_0_26_27
*1251 FILLER_0_26_277
*1252 FILLER_0_26_289
*1253 FILLER_0_26_29
*1254 FILLER_0_26_3
*1255 FILLER_0_26_301
*1256 FILLER_0_26_307
*1257 FILLER_0_26_309
*1258 FILLER_0_26_321
*1259 FILLER_0_26_333
*1260 FILLER_0_26_345
*1261 FILLER_0_26_357
*1262 FILLER_0_26_363
*1263 FILLER_0_26_365
*1264 FILLER_0_26_377
*1265 FILLER_0_26_389
*1266 FILLER_0_26_401
*1267 FILLER_0_26_41
*1268 FILLER_0_26_413
*1269 FILLER_0_26_419
*1270 FILLER_0_26_421
*1271 FILLER_0_26_433
*1272 FILLER_0_26_445
*1273 FILLER_0_26_457
*1274 FILLER_0_26_469
*1275 FILLER_0_26_475
*1276 FILLER_0_26_477
*1277 FILLER_0_26_489
*1278 FILLER_0_26_501
*1279 FILLER_0_26_513
*1280 FILLER_0_26_525
*1281 FILLER_0_26_53
*1282 FILLER_0_26_531
*1283 FILLER_0_26_533
*1284 FILLER_0_26_545
*1285 FILLER_0_26_557
*1286 FILLER_0_26_569
*1287 FILLER_0_26_581
*1288 FILLER_0_26_65
*1289 FILLER_0_26_77
*1290 FILLER_0_26_83
*1291 FILLER_0_26_85
*1292 FILLER_0_26_97
*1293 FILLER_0_27_105
*1294 FILLER_0_27_111
*1295 FILLER_0_27_113
*1296 FILLER_0_27_125
*1297 FILLER_0_27_137
*1298 FILLER_0_27_149
*1299 FILLER_0_27_15
*1300 FILLER_0_27_161
*1301 FILLER_0_27_167
*1302 FILLER_0_27_169
*1303 FILLER_0_27_181
*1304 FILLER_0_27_193
*1305 FILLER_0_27_205
*1306 FILLER_0_27_217
*1307 FILLER_0_27_223
*1308 FILLER_0_27_225
*1309 FILLER_0_27_237
*1310 FILLER_0_27_249
*1311 FILLER_0_27_261
*1312 FILLER_0_27_27
*1313 FILLER_0_27_273
*1314 FILLER_0_27_279
*1315 FILLER_0_27_281
*1316 FILLER_0_27_293
*1317 FILLER_0_27_3
*1318 FILLER_0_27_305
*1319 FILLER_0_27_317
*1320 FILLER_0_27_329
*1321 FILLER_0_27_335
*1322 FILLER_0_27_337
*1323 FILLER_0_27_349
*1324 FILLER_0_27_361
*1325 FILLER_0_27_373
*1326 FILLER_0_27_385
*1327 FILLER_0_27_39
*1328 FILLER_0_27_391
*1329 FILLER_0_27_393
*1330 FILLER_0_27_405
*1331 FILLER_0_27_417
*1332 FILLER_0_27_429
*1333 FILLER_0_27_441
*1334 FILLER_0_27_447
*1335 FILLER_0_27_449
*1336 FILLER_0_27_461
*1337 FILLER_0_27_473
*1338 FILLER_0_27_485
*1339 FILLER_0_27_497
*1340 FILLER_0_27_503
*1341 FILLER_0_27_505
*1342 FILLER_0_27_51
*1343 FILLER_0_27_517
*1344 FILLER_0_27_529
*1345 FILLER_0_27_541
*1346 FILLER_0_27_55
*1347 FILLER_0_27_553
*1348 FILLER_0_27_559
*1349 FILLER_0_27_561
*1350 FILLER_0_27_57
*1351 FILLER_0_27_573
*1352 FILLER_0_27_581
*1353 FILLER_0_27_69
*1354 FILLER_0_27_81
*1355 FILLER_0_27_93
*1356 FILLER_0_28_109
*1357 FILLER_0_28_121
*1358 FILLER_0_28_133
*1359 FILLER_0_28_139
*1360 FILLER_0_28_141
*1361 FILLER_0_28_15
*1362 FILLER_0_28_153
*1363 FILLER_0_28_165
*1364 FILLER_0_28_177
*1365 FILLER_0_28_189
*1366 FILLER_0_28_195
*1367 FILLER_0_28_197
*1368 FILLER_0_28_209
*1369 FILLER_0_28_221
*1370 FILLER_0_28_233
*1371 FILLER_0_28_245
*1372 FILLER_0_28_251
*1373 FILLER_0_28_253
*1374 FILLER_0_28_265
*1375 FILLER_0_28_27
*1376 FILLER_0_28_277
*1377 FILLER_0_28_289
*1378 FILLER_0_28_29
*1379 FILLER_0_28_3
*1380 FILLER_0_28_301
*1381 FILLER_0_28_307
*1382 FILLER_0_28_309
*1383 FILLER_0_28_321
*1384 FILLER_0_28_333
*1385 FILLER_0_28_345
*1386 FILLER_0_28_357
*1387 FILLER_0_28_363
*1388 FILLER_0_28_365
*1389 FILLER_0_28_377
*1390 FILLER_0_28_389
*1391 FILLER_0_28_401
*1392 FILLER_0_28_41
*1393 FILLER_0_28_413
*1394 FILLER_0_28_419
*1395 FILLER_0_28_421
*1396 FILLER_0_28_433
*1397 FILLER_0_28_445
*1398 FILLER_0_28_457
*1399 FILLER_0_28_469
*1400 FILLER_0_28_475
*1401 FILLER_0_28_477
*1402 FILLER_0_28_489
*1403 FILLER_0_28_501
*1404 FILLER_0_28_513
*1405 FILLER_0_28_525
*1406 FILLER_0_28_53
*1407 FILLER_0_28_531
*1408 FILLER_0_28_533
*1409 FILLER_0_28_545
*1410 FILLER_0_28_557
*1411 FILLER_0_28_569
*1412 FILLER_0_28_581
*1413 FILLER_0_28_65
*1414 FILLER_0_28_77
*1415 FILLER_0_28_83
*1416 FILLER_0_28_85
*1417 FILLER_0_28_97
*1418 FILLER_0_29_105
*1419 FILLER_0_29_111
*1420 FILLER_0_29_113
*1421 FILLER_0_29_125
*1422 FILLER_0_29_137
*1423 FILLER_0_29_149
*1424 FILLER_0_29_15
*1425 FILLER_0_29_161
*1426 FILLER_0_29_167
*1427 FILLER_0_29_169
*1428 FILLER_0_29_181
*1429 FILLER_0_29_193
*1430 FILLER_0_29_205
*1431 FILLER_0_29_217
*1432 FILLER_0_29_223
*1433 FILLER_0_29_225
*1434 FILLER_0_29_237
*1435 FILLER_0_29_249
*1436 FILLER_0_29_261
*1437 FILLER_0_29_27
*1438 FILLER_0_29_273
*1439 FILLER_0_29_279
*1440 FILLER_0_29_281
*1441 FILLER_0_29_293
*1442 FILLER_0_29_3
*1443 FILLER_0_29_305
*1444 FILLER_0_29_317
*1445 FILLER_0_29_329
*1446 FILLER_0_29_335
*1447 FILLER_0_29_337
*1448 FILLER_0_29_349
*1449 FILLER_0_29_361
*1450 FILLER_0_29_373
*1451 FILLER_0_29_385
*1452 FILLER_0_29_39
*1453 FILLER_0_29_391
*1454 FILLER_0_29_393
*1455 FILLER_0_29_405
*1456 FILLER_0_29_417
*1457 FILLER_0_29_429
*1458 FILLER_0_29_441