*SPEF "ieee 1481-1999"
*DESIGN "halfadder"
*DATE "18:47:09 Wednesday June 18, 2025"
*VENDOR "The OpenROAD Project"
*PROGRAM "OpenROAD"
*VERSION "b16bda7e82721d10566ff7e2b68f1ff0be9f9e38"
*DESIGN_FLOW "NAME_SCOPE LOCAL" "PIN_CAP NONE"
*DIVIDER /
*DELIMITER :
*BUS_DELIMITER []
*T_UNIT 1 NS
*C_UNIT 1 PF
*R_UNIT 1 OHM
*L_UNIT 1 HENRY

*NAME_MAP
*3 in1
*4 in4
*5 out2
*6 out3
*7 _0_
*8 net1
*9 net2
*10 net3
*11 net4
*12 FILLER_0_0_109
*13 FILLER_0_0_15
*14 FILLER_0_0_27
*15 FILLER_0_0_29
*16 FILLER_0_0_3
*17 FILLER_0_0_41
*18 FILLER_0_0_53
*19 FILLER_0_0_57
*20 FILLER_0_0_69
*21 FILLER_0_0_81
*22 FILLER_0_0_85
*23 FILLER_0_0_97
*24 FILLER_0_10_105
*25 FILLER_0_10_18
*26 FILLER_0_10_26
*27 FILLER_0_10_29
*28 FILLER_0_10_41
*29 FILLER_0_10_53
*30 FILLER_0_10_6
*31 FILLER_0_10_65
*32 FILLER_0_10_77
*33 FILLER_0_10_83
*34 FILLER_0_10_85
*35 FILLER_0_10_97
*36 FILLER_0_11_105
*37 FILLER_0_11_15
*38 FILLER_0_11_27
*39 FILLER_0_11_3
*40 FILLER_0_11_39
*41 FILLER_0_11_51
*42 FILLER_0_11_55
*43 FILLER_0_11_57
*44 FILLER_0_11_69
*45 FILLER_0_11_81
*46 FILLER_0_11_93
*47 FILLER_0_12_109
*48 FILLER_0_12_15
*49 FILLER_0_12_27
*50 FILLER_0_12_29
*51 FILLER_0_12_3
*52 FILLER_0_12_41
*53 FILLER_0_12_53
*54 FILLER_0_12_65
*55 FILLER_0_12_77
*56 FILLER_0_12_83
*57 FILLER_0_12_85
*58 FILLER_0_12_97
*59 FILLER_0_13_105
*60 FILLER_0_13_15
*61 FILLER_0_13_27
*62 FILLER_0_13_3
*63 FILLER_0_13_39
*64 FILLER_0_13_51
*65 FILLER_0_13_55
*66 FILLER_0_13_57
*67 FILLER_0_13_69
*68 FILLER_0_13_81
*69 FILLER_0_13_93
*70 FILLER_0_14_109
*71 FILLER_0_14_15
*72 FILLER_0_14_27
*73 FILLER_0_14_29
*74 FILLER_0_14_3
*75 FILLER_0_14_41
*76 FILLER_0_14_53
*77 FILLER_0_14_65
*78 FILLER_0_14_77
*79 FILLER_0_14_83
*80 FILLER_0_14_85
*81 FILLER_0_14_97
*82 FILLER_0_15_105
*83 FILLER_0_15_15
*84 FILLER_0_15_27
*85 FILLER_0_15_3
*86 FILLER_0_15_39
*87 FILLER_0_15_51
*88 FILLER_0_15_55
*89 FILLER_0_15_57
*90 FILLER_0_15_69
*91 FILLER_0_15_81
*92 FILLER_0_15_93
*93 FILLER_0_16_109
*94 FILLER_0_16_15
*95 FILLER_0_16_27
*96 FILLER_0_16_29
*97 FILLER_0_16_3
*98 FILLER_0_16_41
*99 FILLER_0_16_53
*100 FILLER_0_16_65
*101 FILLER_0_16_77
*102 FILLER_0_16_83
*103 FILLER_0_16_85
*104 FILLER_0_16_97
*105 FILLER_0_17_105
*106 FILLER_0_17_15
*107 FILLER_0_17_27
*108 FILLER_0_17_3
*109 FILLER_0_17_39
*110 FILLER_0_17_51
*111 FILLER_0_17_55
*112 FILLER_0_17_57
*113 FILLER_0_17_69
*114 FILLER_0_17_81
*115 FILLER_0_17_93
*116 FILLER_0_18_109
*117 FILLER_0_18_15
*118 FILLER_0_18_27
*119 FILLER_0_18_29
*120 FILLER_0_18_3
*121 FILLER_0_18_41
*122 FILLER_0_18_53
*123 FILLER_0_18_57
*124 FILLER_0_18_69
*125 FILLER_0_18_81
*126 FILLER_0_18_85
*127 FILLER_0_18_97
*128 FILLER_0_1_105
*129 FILLER_0_1_15
*130 FILLER_0_1_27
*131 FILLER_0_1_3
*132 FILLER_0_1_39
*133 FILLER_0_1_51
*134 FILLER_0_1_55
*135 FILLER_0_1_57
*136 FILLER_0_1_69
*137 FILLER_0_1_81
*138 FILLER_0_1_93
*139 FILLER_0_2_109
*140 FILLER_0_2_15
*141 FILLER_0_2_27
*142 FILLER_0_2_29
*143 FILLER_0_2_3
*144 FILLER_0_2_41
*145 FILLER_0_2_53
*146 FILLER_0_2_65
*147 FILLER_0_2_77
*148 FILLER_0_2_83
*149 FILLER_0_2_85
*150 FILLER_0_2_97
*151 FILLER_0_3_105
*152 FILLER_0_3_15
*153 FILLER_0_3_27
*154 FILLER_0_3_3
*155 FILLER_0_3_39
*156 FILLER_0_3_51
*157 FILLER_0_3_55
*158 FILLER_0_3_57
*159 FILLER_0_3_69
*160 FILLER_0_3_81
*161 FILLER_0_3_93
*162 FILLER_0_4_109
*163 FILLER_0_4_15
*164 FILLER_0_4_27
*165 FILLER_0_4_29
*166 FILLER_0_4_3
*167 FILLER_0_4_41
*168 FILLER_0_4_53
*169 FILLER_0_4_65
*170 FILLER_0_4_77
*171 FILLER_0_4_83
*172 FILLER_0_4_85
*173 FILLER_0_4_97
*174 FILLER_0_5_105
*175 FILLER_0_5_15
*176 FILLER_0_5_27
*177 FILLER_0_5_3
*178 FILLER_0_5_39
*179 FILLER_0_5_51
*180 FILLER_0_5_55
*181 FILLER_0_5_57
*182 FILLER_0_5_69
*183 FILLER_0_5_81
*184 FILLER_0_5_93
*185 FILLER_0_6_109
*186 FILLER_0_6_15
*187 FILLER_0_6_27
*188 FILLER_0_6_29
*189 FILLER_0_6_3
*190 FILLER_0_6_41
*191 FILLER_0_6_53
*192 FILLER_0_6_65
*193 FILLER_0_6_77
*194 FILLER_0_6_83
*195 FILLER_0_6_85
*196 FILLER_0_6_97
*197 FILLER_0_7_105
*198 FILLER_0_7_15
*199 FILLER_0_7_27
*200 FILLER_0_7_3
*201 FILLER_0_7_39
*202 FILLER_0_7_51
*203 FILLER_0_7_55
*204 FILLER_0_7_57
*205 FILLER_0_7_69
*206 FILLER_0_7_81
*207 FILLER_0_7_93
*208 FILLER_0_8_109
*209 FILLER_0_8_15
*210 FILLER_0_8_27
*211 FILLER_0_8_29
*212 FILLER_0_8_3
*213 FILLER_0_8_41
*214 FILLER_0_8_53
*215 FILLER_0_8_65
*216 FILLER_0_8_77
*217 FILLER_0_8_83
*218 FILLER_0_8_85
*219 FILLER_0_8_97
*220 FILLER_0_9_103
*221 FILLER_0_9_18
*222 FILLER_0_9_30
*223 FILLER_0_9_42
*224 FILLER_0_9_50
*225 FILLER_0_9_6
*226 FILLER_0_9_67
*227 FILLER_0_9_79
*228 FILLER_0_9_91
*229 PHY_EDGE_ROW_0_Left_19
*230 PHY_EDGE_ROW_0_Right_0
*231 PHY_EDGE_ROW_10_Left_29
*232 PHY_EDGE_ROW_10_Right_10
*233 PHY_EDGE_ROW_11_Left_30
*234 PHY_EDGE_ROW_11_Right_11
*235 PHY_EDGE_ROW_12_Left_31
*236 PHY_EDGE_ROW_12_Right_12
*237 PHY_EDGE_ROW_13_Left_32
*238 PHY_EDGE_ROW_13_Right_13
*239 PHY_EDGE_ROW_14_Left_33
*240 PHY_EDGE_ROW_14_Right_14
*241 PHY_EDGE_ROW_15_Left_34
*242 PHY_EDGE_ROW_15_Right_15
*243 PHY_EDGE_ROW_16_Left_35
*244 PHY_EDGE_ROW_16_Right_16
*245 PHY_EDGE_ROW_17_Left_36
*246 PHY_EDGE_ROW_17_Right_17
*247 PHY_EDGE_ROW_18_Left_37
*248 PHY_EDGE_ROW_18_Right_18
*249 PHY_EDGE_ROW_1_Left_20
*250 PHY_EDGE_ROW_1_Right_1
*251 PHY_EDGE_ROW_2_Left_21
*252 PHY_EDGE_ROW_2_Right_2
*253 PHY_EDGE_ROW_3_Left_22
*254 PHY_EDGE_ROW_3_Right_3
*255 PHY_EDGE_ROW_4_Left_23
*256 PHY_EDGE_ROW_4_Right_4
*257 PHY_EDGE_ROW_5_Left_24
*258 PHY_EDGE_ROW_5_Right_5
*259 PHY_EDGE_ROW_6_Left_25
*260 PHY_EDGE_ROW_6_Right_6
*261 PHY_EDGE_ROW_7_Left_26
*262 PHY_EDGE_ROW_7_Right_7
*263 PHY_EDGE_ROW_8_Left_27
*264 PHY_EDGE_ROW_8_Right_8
*265 PHY_EDGE_ROW_9_Left_28
*266 PHY_EDGE_ROW_9_Right_9
*267 TAP_TAPCELL_ROW_0_38
*268 TAP_TAPCELL_ROW_0_39
*269 TAP_TAPCELL_ROW_0_40
*270 TAP_TAPCELL_ROW_10_54
*271 TAP_TAPCELL_ROW_10_55
*272 TAP_TAPCELL_ROW_11_56
*273 TAP_TAPCELL_ROW_12_57
*274 TAP_TAPCELL_ROW_12_58
*275 TAP_TAPCELL_ROW_13_59
*276 TAP_TAPCELL_ROW_14_60
*277 TAP_TAPCELL_ROW_14_61
*278 TAP_TAPCELL_ROW_15_62
*279 TAP_TAPCELL_ROW_16_63
*280 TAP_TAPCELL_ROW_16_64
*281 TAP_TAPCELL_ROW_17_65
*282 TAP_TAPCELL_ROW_18_66
*283 TAP_TAPCELL_ROW_18_67
*284 TAP_TAPCELL_ROW_18_68
*285 TAP_TAPCELL_ROW_1_41
*286 TAP_TAPCELL_ROW_2_42
*287 TAP_TAPCELL_ROW_2_43
*288 TAP_TAPCELL_ROW_3_44
*289 TAP_TAPCELL_ROW_4_45
*290 TAP_TAPCELL_ROW_4_46
*291 TAP_TAPCELL_ROW_5_47
*292 TAP_TAPCELL_ROW_6_48
*293 TAP_TAPCELL_ROW_6_49
*294 TAP_TAPCELL_ROW_7_50
*295 TAP_TAPCELL_ROW_8_51
*296 TAP_TAPCELL_ROW_8_52
*297 TAP_TAPCELL_ROW_9_53
*298 _1_
*299 _2_
*300 _3_
*301 input1
*302 input2
*303 output3
*304 output4

*PORTS
in1 I
in4 I
out2 O
out3 O

*D_NET *3 0.000707738
*CONN
*P in1 I
*I *301:A I *D sky130_fd_sc_hd__buf_1
*CAP
1 in1 0.000339797
2 *301:A 0.000339797
3 *301:A *302:A 2.25951e-05
4 *301:A *9:12 5.54817e-06
*RES
1 in1 *301:A 20.2479 
*END

*D_NET *4 0.000636786
*CONN
*P in4 I
*I *302:A I *D sky130_fd_sc_hd__buf_1
*CAP
1 in4 0.000307096
2 *302:A 0.000307096
3 *301:A *302:A 2.25951e-05
*RES
1 in4 *302:A 21.0874 
*END

*D_NET *5 0.000627351
*CONN
*P out2 O
*I *303:X O *D sky130_fd_sc_hd__buf_2
*CAP
1 out2 0.000279991
2 *303:X 0.000279991
3 out2 out3 6.73698e-05
*RES
1 *303:X out2 19.2657 
*END

*D_NET *6 0.000673607
*CONN
*P out3 O
*I *304:X O *D sky130_fd_sc_hd__buf_2
*CAP
1 out3 0.000303118
2 *304:X 0.000303118
3 out2 out3 6.73698e-05
*RES
1 *304:X out3 19.4092 
*END

*D_NET *7 0.000842851
*CONN
*I *300:A I *D sky130_fd_sc_hd__clkbuf_1
*I *299:X O *D sky130_fd_sc_hd__and2_1
*CAP
1 *300:A 0.000295535
2 *299:X 0.000295535
3 *300:A *298:A 0.000195083
4 *300:A *304:A 5.66971e-05
*RES
1 *299:X *300:A 23.2786 
*END

*D_NET *8 0.0039406
*CONN
*I *298:B I *D sky130_fd_sc_hd__xor2_1
*I *299:B I *D sky130_fd_sc_hd__and2_1
*I *301:X O *D sky130_fd_sc_hd__buf_1
*CAP
1 *298:B 8.262e-05
2 *299:B 1.96542e-05
3 *301:X 0.000772652
4 *8:8 0.000874926
5 *298:B *298:A 0.000126509
6 *299:B *298:A 5.38444e-06
7 *8:8 *298:A 4.76373e-05
8 *8:8 *9:12 0.00201122
*RES
1 *301:X *8:8 29.5679 
2 *8:8 *299:B 9.72857 
3 *8:8 *298:B 11.4786 
*END

*D_NET *9 0.00430949
*CONN
*I *298:A I *D sky130_fd_sc_hd__xor2_1
*I *299:A I *D sky130_fd_sc_hd__and2_1
*I *302:X O *D sky130_fd_sc_hd__buf_1
*CAP
1 *298:A 0.000149287
2 *299:A 0
3 *302:X 0.000809768
4 *9:12 0.000959055
5 *298:B *298:A 0.000126509
6 *299:B *298:A 5.38444e-06
7 *300:A *298:A 0.000195083
8 *301:A *9:12 5.54817e-06
9 *8:8 *298:A 4.76373e-05
10 *8:8 *9:12 0.00201122
*RES
1 *302:X *9:12 38.9607 
2 *9:12 *299:A 9.3 
3 *9:12 *298:A 13.5679 
*END

*D_NET *10 0.0022865
*CONN
*I *303:A I *D sky130_fd_sc_hd__buf_2
*I *300:X O *D sky130_fd_sc_hd__clkbuf_1
*CAP
1 *303:A 0.00114325
2 *300:X 0.00114325
*RES
1 *300:X *303:A 46.2071 
*END

*D_NET *11 0.00221966
*CONN
*I *304:A I *D sky130_fd_sc_hd__buf_2
*I *298:X O *D sky130_fd_sc_hd__xor2_1
*CAP
1 *304:A 0.00108148
2 *298:X 0.00108148
3 *300:A *304:A 5.66971e-05
*RES
1 *298:X *304:A 37.225 
*END
